reduced_cases/reduced_case_ACTIVSg200.m
%% MATPOWER Case Format : Version 2
function mpc = case_ACTIVSg200
mpc.version = '2';

%%-----  Power Flow Data  -----%%
%% system MVA base
mpc.baseMVA = 100;
%% bus data
%    bus_i    type    Pd    Qd    Gs    Bs    area    Vm    Va    baseKV    zone    Vmax    Vmin
mpc.bus = [
	1	1	7.39	2.1	0.0	0.0	1	1.0191524	-7.085196000000001	115.0	2	1.1	0.9	6.87	0.0	0.0	0.0
	3	1	1.7000000000000002	0.48	0.0	0.0	1	1.0300537	-10.029102	115.0	4	1.1	0.9	6.87	0.0	0.0	0.0
	5	1	7.95	2.26	0.0	0.0	1	1.0372733	-3.546274	115.0	6	1.1	0.9	6.87	0.0	0.0	0.0
	7	1	23.74	6.77	0.0	0.0	1	1.0130981	-7.793195000000001	115.0	2	1.1	0.9	6.87	0.0	0.0	0.0
	9	1	42.68	12.16	0.0	0.0	1	1.0157742	-7.471766	115.0	2	1.1	0.9	6.87	0.0	0.0	0.0
	11	1	2.82	0.8099999999999999	0.0	0.0	1	1.0464424	-7.604682999999999	115.0	4	1.1	0.9	6.87	0.0	0.0	0.0
	14	1	0.0	0.0	0.0	0.0	1	1.044617	-6.245575	230.0	4	1.1	0.9	6.87	0.0	0.0	0.0
	15	1	44.76	12.76	0.0	30.0	1	1.0491072	-7.105388	115.0	4	1.1	0.9	6.87	0.0	0.0	0.0
	17	1	7.22	2.05	0.0	0.0	1	1.0247944	-8.305174	115.0	4	1.1	0.9	6.87	0.0	0.0	0.0
	22	1	3.8099999999999996	1.08	0.0	0.0	1	1.0446532	-8.021549	115.0	4	1.1	0.9	6.87	0.0	0.0	0.0
	25	1	1.35	0.39	0.0	0.0	1	1.0425139	-4.003351	115.0	6	1.1	0.9	6.87	0.0	0.0	0.0
	27	1	2.33	0.67	0.0	0.0	1	1.0457273	-7.975065	115.0	4	1.1	0.9	6.87	0.0	0.0	0.0
	29	1	0.0	0.0	0.0	0.0	1	1.0181686	-7.054086	115.0	2	1.1	0.9	6.87	0.0	0.0	0.0
	30	1	59.089999999999996	16.84	0.0	0.0	1	1.0172458	-7.149969	115.0	2	1.1	0.9	6.87	0.0	0.0	0.0
	31	1	6.949999999999999	1.9899999999999998	0.0	0.0	1	1.0215416	-5.832082	115.0	7	1.1	0.9	6.87	0.0	0.0	0.0
	34	1	20.76	5.92	0.0	0.0	1	1.0327185	-9.326455	115.0	4	1.1	0.9	6.87	0.0	0.0	0.0
	36	1	33.379999999999995	9.52	0.0	0.0	1	1.0280697	-6.178381	115.0	7	1.1	0.9	6.87	0.0	0.0	0.0
	39	1	9.45	2.69	0.0	0.0	1	1.024585	-10.493094	115.0	4	1.1	0.9	6.87	0.0	0.0	0.0
	41	1	38.34	10.93	0.0	0.0	1	1.0462799	-7.960170000000001	115.0	5	1.1	0.9	6.87	0.0	0.0	0.0
	42	1	10.62	3.03	0.0	0.0	1	1.0301465	-11.069993	115.0	4	1.1	0.9	6.87	0.0	0.0	0.0
	43	1	2.09	0.59	0.0	0.0	1	1.017201	-6.400585	115.0	2	1.1	0.9	6.87	0.0	0.0	0.0
	44	1	4.15	1.18	0.0	0.0	1	1.0280137	-10.39886	115.0	4	1.1	0.9	6.87	0.0	0.0	0.0
	45	1	0.0	0.0	0.0	0.0	1	1.0384367	-2.068677	230.0	7	1.1	0.9	6.87	0.0	0.0	0.0
	46	1	6.34	1.81	0.0	0.0	1	1.0378124	-2.889424	115.0	7	1.1	0.9	6.87	0.0	0.0	0.0
	47	1	1.54	0.44	0.0	0.0	1	1.0392618	-8.19532	115.0	4	1.1	0.9	6.87	0.0	0.0	0.0
	48	1	1.82	0.52	0.0	0.0	1	1.0351468	-4.17501	115.0	6	1.1	0.9	6.87	0.0	0.0	0.0
	54	1	2.66	0.76	0.0	0.0	1	1.0375005	-8.493516	115.0	4	1.1	0.9	6.87	0.0	0.0	0.0
	55	1	0.0	0.0	0.0	0.0	1	1.0370718	-2.298751	230.0	7	1.1	0.9	6.87	0.0	0.0	0.0
	56	1	1.31	0.37	0.0	0.0	1	1.0364415	-2.736582	115.0	7	1.1	0.9	6.87	0.0	0.0	0.0
	57	1	2.82	0.8	0.0	0.0	1	1.0281336	-10.449132	115.0	4	1.1	0.9	6.87	0.0	0.0	0.0
	58	1	4.23	1.21	0.0	0.0	1	1.0349414	-6.030088	115.0	7	1.1	0.9	6.87	0.0	0.0	0.0
	59	1	4.73	1.35	0.0	0.0	1	1.0187885	-7.693149	115.0	2	1.1	0.9	6.87	0.0	0.0	0.0
	60	1	3.8	1.08	0.0	0.0	1	1.0291097	-6.554687	115.0	2	1.1	0.9	6.87	0.0	0.0	0.0
	61	1	20.55	5.86	0.0	0.0	1	1.0351527	-3.1027190000000004	115.0	7	1.1	0.9	6.87	0.0	0.0	0.0
	62	1	21.41	6.1	0.0	0.0	1	1.0267194	-11.318015	115.0	4	1.1	0.9	6.87	0.0	0.0	0.0
	63	1	7.980000000000001	2.27	0.0	0.0	1	1.0437777	-8.233032	115.0	4	1.1	0.9	6.87	0.0	0.0	0.0
	64	1	0.0	0.0	0.0	0.0	1	1.0415417	-2.532761	115.0	6	1.1	0.9	6.87	0.0	0.0	0.0
	66	1	0.0	0.0	0.0	0.0	1	1.0410702	-7.8464409999999996	115.0	4	1.1	0.9	6.87	0.0	0.0	0.0
	74	1	18.76	5.35	0.0	0.0	1	1.0294816	-5.12964	115.0	6	1.1	0.9	6.87	0.0	0.0	0.0
	75	1	3.6000000000000005	1.03	0.0	0.0	1	1.028977	-6.116296	115.0	2	1.1	0.9	6.87	0.0	0.0	0.0
	80	1	1.48	0.42	0.0	0.0	1	1.0475622	-7.258210000000001	115.0	5	1.1	0.9	6.87	0.0	0.0	0.0
	81	1	0.0	0.0	0.0	0.0	1	1.038152	-3.8964260000000004	230.0	6	1.1	0.9	6.87	0.0	0.0	0.0
	82	1	7.6	2.17	0.0	0.0	1	1.0353106	-4.72467	115.0	6	1.1	0.9	6.87	0.0	0.0	0.0
	83	1	3.1400000000000006	0.89	0.0	0.0	1	1.0305903	-5.147124	115.0	7	1.1	0.9	6.87	0.0	0.0	0.0
	84	1	3.75	1.07	0.0	0.0	1	1.0192369	-5.836735	115.0	2	1.1	0.9	6.87	0.0	0.0	0.0
	85	1	4.83	1.38	0.0	0.0	1	1.0241032	-9.891841	115.0	4	1.1	0.9	6.87	0.0	0.0	0.0
	86	1	45.51	12.969999999999999	0.0	0.0	1	1.0142895	-7.633369	115.0	2	1.1	0.9	6.87	0.0	0.0	0.0
	87	1	0.0	0.0	0.0	0.0	1	1.0382378	-9.281203	230.0	3	1.1	0.9	6.87	0.0	0.0	0.0
	88	1	49.34	14.06	0.0	0.0	1	1.0367741	-10.475486000000002	115.0	3	1.1	0.9	6.87	0.0	0.0	0.0
	89	1	62.85000000000001	17.91	0.0	0.0	1	1.0367956	-6.001781	115.0	7	1.1	0.9	6.87	0.0	0.0	0.0
	93	1	3.06	0.8699999999999999	0.0	0.0	1	1.0467635	-7.705981000000001	115.0	4	1.1	0.9	6.87	0.0	0.0	0.0
	95	1	3.0	0.8500000000000001	0.0	30.0	1	1.0452705	-6.143695	115.0	7	1.1	0.9	6.87	0.0	0.0	0.0
	96	1	2.96	0.84	0.0	0.0	1	1.0399843	-4.622369	115.0	7	1.1	0.9	6.87	0.0	0.0	0.0
	97	1	7.33	2.09	0.0	0.0	1	1.0266279	-8.070874	115.0	2	1.1	0.9	6.87	0.0	0.0	0.0
	98	1	0.0	0.0	0.0	0.0	1	1.0259732	-5.693301	230.0	2	1.1	0.9	6.87	0.0	0.0	0.0
	99	1	12.17	3.47	0.0	0.0	1	1.021759	-6.532648	115.0	2	1.1	0.9	6.87	0.0	0.0	0.0
	100	1	37.39	10.66	0.0	80.0	1	1.05559	-7.845164	115.0	5	1.1	0.9	6.87	0.0	0.0	0.0
	101	1	0.52	0.15	0.0	0.0	1	1.0153419	-7.486883	115.0	2	1.1	0.9	6.87	0.0	0.0	0.0
	102	1	0.0	0.0	0.0	0.0	1	1.0375884	-1.855349	230.0	7	1.1	0.9	6.87	0.0	0.0	0.0
	103	1	0.0	0.0	0.0	0.0	1	1.0361908	-2.820525	115.0	7	1.1	0.9	6.87	0.0	0.0	0.0
	106	1	2.06	0.59	0.0	0.0	1	1.0333053	-3.5875240000000006	115.0	7	1.1	0.9	6.87	0.0	0.0	0.0
	107	1	52.56000000000001	14.980000000000002	0.0	0.0	1	1.0164253	-5.897801	115.0	7	1.1	0.9	6.87	0.0	0.0	0.0
	108	1	9.42	2.68	0.0	0.0	1	1.02631	-6.590908	115.0	2	1.1	0.9	6.87	0.0	0.0	0.0
	109	1	5.16	1.47	0.0	0.0	1	1.0266885	-7.119037	115.0	4	1.1	0.9	6.87	0.0	0.0	0.0
	110	1	10.86	3.09	0.0	0.0	1	1.0153998	-7.494692999999999	115.0	2	1.1	0.9	6.87	0.0	0.0	0.0
	111	1	8.82	2.51	0.0	0.0	1	1.0422996	-8.069078	115.0	5	1.1	0.9	6.87	0.0	0.0	0.0
	112	1	0.0	0.0	0.0	0.0	1	1.0338868	-2.38601	230.0	7	1.1	0.9	6.87	0.0	0.0	0.0
	113	1	0.0	0.0	0.0	0.0	1	1.0214787	-5.246294	115.0	7	1.1	0.9	6.87	0.0	0.0	0.0
	116	1	0.0	0.0	0.0	0.0	1	1.0260581	-5.40757	230.0	2	1.1	0.9	6.87	0.0	0.0	0.0
	117	1	34.08	9.71	0.0	0.0	1	1.0194057	-6.761358000000001	115.0	2	1.1	0.9	6.87	0.0	0.0	0.0
	118	1	3.94	1.12	0.0	0.0	1	1.0220863	-6.761277000000001	115.0	2	1.1	0.9	6.87	0.0	0.0	0.0
	119	1	17.55	5.0	0.0	0.0	1	1.0162966	-7.890283	115.0	2	1.1	0.9	6.87	0.0	0.0	0.0
	120	1	1.8000000000000003	0.51	0.0	0.0	1	1.0244523	-9.260740000000002	115.0	4	1.1	0.9	6.87	0.0	0.0	0.0
	121	1	0.0	0.0	0.0	0.0	1	1.0413751	-2.550667	230.0	7	1.1	0.9	6.87	0.0	0.0	0.0
	122	1	15.439999999999998	4.4	0.0	0.0	1	1.0392113	-3.476706	115.0	7	1.1	0.9	6.87	0.0	0.0	0.0
	123	1	0.0	0.0	0.0	0.0	1	1.0317706	-4.799729	230.0	2	1.1	0.9	6.87	0.0	0.0	0.0
	124	1	0.0	0.0	0.0	0.0	1	1.0241995	-6.311793	115.0	2	1.1	0.9	6.87	0.0	0.0	0.0
	128	1	0.0	0.0	0.0	0.0	1	1.0336624	-2.641873	230.0	7	1.1	0.9	6.87	0.0	0.0	0.0
	129	1	77.24	22.01	0.0	0.0	1	1.0199071	-5.280933	115.0	7	1.1	0.9	6.87	0.0	0.0	0.0
	130	1	4.4	1.25	0.0	0.0	1	1.0308537	-4.215383	115.0	7	1.1	0.9	6.87	0.0	0.0	0.0
	131	1	30.25	8.62	0.0	0.0	1	1.0159516	-7.483658000000001	115.0	2	1.1	0.9	6.87	0.0	0.0	0.0
	132	1	26.96	7.68	0.0	0.0	1	1.0142019	-7.143976000000001	115.0	2	1.1	0.9	6.87	0.0	0.0	0.0
	133	1	0.0	0.0	0.0	0.0	1	1.033428	-4.376173	230.0	2	1.1	0.9	6.87	0.0	0.0	0.0
	134	1	0.0	0.0	0.0	0.0	1	1.0315652	-5.231244	115.0	2	1.1	0.9	6.87	0.0	0.0	0.0
	137	1	1.16	0.33	0.0	0.0	1	1.0313258	-9.719095	115.0	4	1.1	0.9	6.87	0.0	0.0	0.0
	138	1	2.09	0.6	0.0	0.0	1	1.0307923	-5.699318	115.0	6	1.1	0.9	6.87	0.0	0.0	0.0
	139	1	6.84	1.95	0.0	0.0	1	1.0214166	-7.361468	115.0	2	1.1	0.9	6.87	0.0	0.0	0.0
	140	1	8.21	2.34	0.0	0.0	1	1.0231103	-6.390899	115.0	2	1.1	0.9	6.87	0.0	0.0	0.0
	141	1	1.42	0.4099999999999999	0.0	0.0	1	1.0153587	-7.521902	115.0	2	1.1	0.9	6.87	0.0	0.0	0.0
	143	1	26.780000000000005	7.629999999999999	0.0	0.0	1	1.0372589	-6.549447	115.0	5	1.1	0.9	6.87	0.0	0.0	0.0
	144	1	9.05	2.58	0.0	0.0	1	1.0236389	-5.928282000000001	115.0	2	1.1	0.9	6.87	0.0	0.0	0.0
	145	1	17.54	5.0	0.0	0.0	1	1.0320168	-11.164121	115.0	3	1.1	0.9	6.87	0.0	0.0	0.0
	146	1	0.0	0.0	0.0	0.0	1	1.0331184	-4.010275	115.0	7	1.1	0.9	6.87	0.0	0.0	0.0
	148	1	32.02	9.13	0.0	0.0	1	1.0102299	-8.189318	115.0	2	1.1	0.9	6.87	0.0	0.0	0.0
	149	1	0.0	0.0	0.0	0.0	1	1.0395559	-8.879345	230.0	3	1.1	0.9	6.87	0.0	0.0	0.0
	150	1	0.0	0.0	0.0	0.0	1	1.039664	-9.999925	115.0	3	1.1	0.9	6.87	0.0	0.0	0.0
	156	1	0.0	0.0	0.0	0.0	1	1.0321033	-4.724707	230.0	2	1.1	0.9	6.87	0.0	0.0	0.0
	157	1	14.760000000000002	4.21	0.0	0.0	1	1.0305206	-5.439245	115.0	2	1.1	0.9	6.87	0.0	0.0	0.0
	158	1	8.97	2.56	0.0	0.0	1	1.0434577	-7.900145000000001	115.0	4	1.1	0.9	6.87	0.0	0.0	0.0
	159	1	1.39	0.4	0.0	0.0	1	1.0265896	-10.742416	115.0	4	1.1	0.9	6.87	0.0	0.0	0.0
	160	1	0.0	0.0	0.0	0.0	1	1.0311472	-11.239582	115.0	4	1.1	0.9	6.87	0.0	0.0	0.0
	162	1	1.45	0.4099999999999999	0.0	0.0	1	1.0225791	-6.221058	115.0	2	1.1	0.9	6.87	0.0	0.0	0.0
	163	1	45.8	13.05	0.0	0.0	1	1.0431643	-7.9262440000000005	115.0	5	1.1	0.9	6.87	0.0	0.0	0.0
	171	1	7.9399999999999995	2.26	0.0	0.0	1	1.0293606	-5.544471	115.0	6	1.1	0.9	6.87	0.0	0.0	0.0
	172	1	5.38	1.53	0.0	0.0	1	1.0446624	-6.737828	115.0	5	1.1	0.9	6.87	0.0	0.0	0.0
	173	1	8.71	2.48	0.0	0.0	1	1.0438694	-7.824896000000001	115.0	5	1.1	0.9	6.87	0.0	0.0	0.0
	174	1	2.77	0.79	0.0	0.0	1	1.048556	-6.975714	115.0	5	1.1	0.9	6.87	0.0	0.0	0.0
	175	1	7.31	2.08	0.0	0.0	1	1.042508	-8.051141	115.0	5	1.1	0.9	6.87	0.0	0.0	0.0
	176	1	19.01	5.42	0.0	0.0	1	1.034057	-10.848998	115.0	3	1.1	0.9	6.87	0.0	0.0	0.0
	177	1	11.29	3.2199999999999998	0.0	0.0	1	1.0279083	-5.445402	115.0	7	1.1	0.9	6.87	0.0	0.0	0.0
	178	1	0.0	0.0	0.0	0.0	1	1.0414926	-4.889523	230.0	5	1.1	0.9	6.87	0.0	0.0	0.0
	179	1	23.61	6.7299999999999995	0.0	0.0	1	1.0462277	-6.907941	115.0	5	1.1	0.9	6.87	0.0	0.0	0.0
	180	1	7.739999999999999	2.21	0.0	0.0	1	1.045211	-7.124937	115.0	5	1.1	0.9	6.87	0.0	0.0	0.0
	181	1	47.98	13.669999999999998	0.0	0.0	1	1.0333892	-11.195233	115.0	4	1.1	0.9	6.87	0.0	0.0	0.0
	184	1	10.69	3.05	0.0	0.0	1	1.0492205	-8.289414	115.0	5	1.1	0.9	6.87	0.0	0.0	0.0
	185	1	10.79	3.07	0.0	0.0	1	1.0341291	-10.871111	115.0	3	1.1	0.9	6.87	0.0	0.0	0.0
	186	1	2.1	0.6	0.0	0.0	1	1.0294683	-5.915141	115.0	2	1.1	0.9	6.87	0.0	0.0	0.0
	188	1	0.0	0.0	0.0	0.0	1	1.0422271	-4.274235	115.0	7	1.1	0.9	6.87	0.0	0.0	0.0
	189	3	0.0	0.0	0.0	0.0	1	1.04	0.0	13.8	7	1.1	0.9	6.87	0.0	0.0	0.0
	190	1	16.79	4.78	0.0	0.0	1	1.0275107	-5.607695	115.0	6	1.1	0.9	6.87	0.0	0.0	0.0
	191	1	7.23	2.06	0.0	0.0	1	1.0460774	-7.762654	115.0	5	1.1	0.9	6.87	0.0	0.0	0.0
	192	1	52.739999999999995	15.03	0.0	0.0	1	1.0166276	-5.99268	115.0	7	1.1	0.9	6.87	0.0	0.0	0.0
	193	1	21.99	6.27	0.0	0.0	1	1.0164747	-7.379588	115.0	2	1.1	0.9	6.87	0.0	0.0	0.0
	194	1	37.57	10.71	0.0	50.0	1	1.0400826	-10.703489	115.0	3	1.1	0.9	6.87	0.0	0.0	0.0
	195	1	0.0	0.0	0.0	0.0	1	1.0332601	-5.127426	115.0	6	1.1	0.9	6.87	0.0	0.0	0.0
	198	1	5.37	1.53	0.0	0.0	1	1.0232234	-6.849765	115.0	2	1.1	0.9	6.87	0.0	0.0	0.0
	199	1	4.26	1.21	0.0	0.0	1	1.0438791	-5.721465	115.0	6	1.1	0.9	6.87	0.0	0.0	0.0
	200	1	9.34	2.66	0.0	0.0	1	1.0259148	-9.367606	115.0	4	1.1	0.9	6.87	0.0	0.0	0.0
];

%% generator data
%    bus    Pg    Qg    Qmax    Qmin    Vg    mBase    status    Pmax    Pmin    Pc1    Pc2    Qc1min    Qc1max    Qc2min    Qc2max    ramp_agc    ramp_10    ramp_30    ramp_q    apf
mpc.gen = [
	48	1.36	0.88	2.11	-0.55	1.04	5.44	1	4.53	1.36	0.0	0.0	0.0	0.0	0.0	0.0	0.0	0.0	0.0	0.0	0.0	0.0	0.0	0.0	0.0
	48	1.36	1.18	2.11	-0.55	1.04	5.44	1	4.53	1.36	0.0	0.0	0.0	0.0	0.0	0.0	0.0	0.0	0.0	0.0	0.0	0.0	0.0	0.0	0.0
	48	1.36	0.77	2.11	-0.55	1.04	5.44	1	4.53	1.36	0.0	0.0	0.0	0.0	0.0	0.0	0.0	0.0	0.0	0.0	0.0	0.0	0.0	0.0	0.0
	48	1.36	1.25	2.11	-0.55	1.04	5.44	1	4.53	1.36	0.0	0.0	0.0	0.0	0.0	0.0	0.0	0.0	0.0	0.0	0.0	0.0	0.0	0.0	0.0
	48	2.72	0.79	4.23	-1.11	1.04	10.88	1	9.07	2.72	0.0	0.0	0.0	0.0	0.0	0.0	0.0	0.0	0.0	0.0	0.0	0.0	0.0	0.0	0.0
	64	86.5	0.84	32.04	-21.66	1.04	180.48	1	86.5	86.5	0.0	0.0	0.0	0.0	0.0	0.0	0.0	0.0	0.0	0.0	0.0	0.0	0.0	0.0	0.0
	66	1.41	-0.57	2.19	-0.57	1.04	5.64	1	4.7	1.41	0.0	0.0	0.0	0.0	0.0	0.0	0.0	0.0	0.0	0.0	0.0	0.0	0.0	0.0	0.0
	66	8.38	-0.55	13.01	-3.4099999999999997	1.04	33.5	1	27.92	8.38	0.0	0.0	0.0	0.0	0.0	0.0	0.0	0.0	0.0	0.0	0.0	0.0	0.0	0.0	0.0
	66	8.38	-1.53	13.01	-3.4099999999999997	1.04	33.5	1	27.92	8.38	0.0	0.0	0.0	0.0	0.0	0.0	0.0	0.0	0.0	0.0	0.0	0.0	0.0	0.0	0.0
	66	8.38	-0.78	13.01	-3.4099999999999997	1.04	33.5	1	27.92	8.38	0.0	0.0	0.0	0.0	0.0	0.0	0.0	0.0	0.0	0.0	0.0	0.0	0.0	0.0	0.0
	66	8.38	-1.7000000000000002	13.01	-3.4099999999999997	1.04	33.5	1	27.92	8.38	0.0	0.0	0.0	0.0	0.0	0.0	0.0	0.0	0.0	0.0	0.0	0.0	0.0	0.0	0.0
	66	8.38	-1.86	13.01	-3.4099999999999997	1.04	33.5	1	27.92	8.38	0.0	0.0	0.0	0.0	0.0	0.0	0.0	0.0	0.0	0.0	0.0	0.0	0.0	0.0	0.0
	66	8.38	-1.11	13.01	-3.4099999999999997	1.04	33.5	1	27.92	8.38	0.0	0.0	0.0	0.0	0.0	0.0	0.0	0.0	0.0	0.0	0.0	0.0	0.0	0.0	0.0
	75	1.2	1.41	2.04	-0.44	1.04	4.8	1	4.0	1.2	0.0	0.0	0.0	0.0	0.0	0.0	0.0	0.0	0.0	0.0	0.0	0.0	0.0	0.0	0.0
	75	0.72	0.5	1.22	-0.27	1.04	2.88	1	2.4	0.72	0.0	0.0	0.0	0.0	0.0	0.0	0.0	0.0	0.0	0.0	0.0	0.0	0.0	0.0	0.0
	75	0.0	0.0	9.16	-2.0	1.04	21.6	0	18.0	5.4	0.0	0.0	0.0	0.0	0.0	0.0	0.0	0.0	0.0	0.0	0.0	0.0	0.0	0.0	0.0
	75	0.0	0.0	9.16	-2.0	1.04	21.6	0	18.0	5.4	0.0	0.0	0.0	0.0	0.0	0.0	0.0	0.0	0.0	0.0	0.0	0.0	0.0	0.0	0.0
	89	0.96	0.13	1.63	-0.36	1.04	3.84	1	3.2	0.96	0.0	0.0	0.0	0.0	0.0	0.0	0.0	0.0	0.0	0.0	0.0	0.0	0.0	0.0	0.0
	89	1.5	0.59	2.55	-0.55	1.04	6.0	1	5.0	1.5	0.0	0.0	0.0	0.0	0.0	0.0	0.0	0.0	0.0	0.0	0.0	0.0	0.0	0.0	0.0
	89	0.0	0.0	3.2099999999999995	-0.7	1.04	7.56	0	6.3	1.8900000000000001	0.0	0.0	0.0	0.0	0.0	0.0	0.0	0.0	0.0	0.0	0.0	0.0	0.0	0.0	0.0
	93	5.4	-2.2	8.39	-2.2	1.04	21.6	1	18.0	5.4	0.0	0.0	0.0	0.0	0.0	0.0	0.0	0.0	0.0	0.0	0.0	0.0	0.0	0.0	0.0
	102	67.6	3.1	21.09	-14.26	1.04	118.8	1	67.6	67.6	0.0	0.0	0.0	0.0	0.0	0.0	0.0	0.0	0.0	0.0	0.0	0.0	0.0	0.0	0.0
	102	154.8	8.29	42.17	-28.51	1.04	237.6	1	154.8	154.8	0.0	0.0	0.0	0.0	0.0	0.0	0.0	0.0	0.0	0.0	0.0	0.0	0.0	0.0	0.0
	112	1.4	0.36	0.36	-0.24	1.04	2.04	1	1.4	1.4	0.0	0.0	0.0	0.0	0.0	0.0	0.0	0.0	0.0	0.0	0.0	0.0	0.0	0.0	0.0
	112	133.5	12.6	31.95	-21.6	1.04	180.0	1	133.5	133.5	0.0	0.0	0.0	0.0	0.0	0.0	0.0	0.0	0.0	0.0	0.0	0.0	0.0	0.0	0.0
	123	39.02	7.24	60.6	-15.869999999999997	1.04	156.06	1	130.05	39.02	0.0	0.0	0.0	0.0	0.0	0.0	0.0	0.0	0.0	0.0	0.0	0.0	0.0	0.0	0.0
	123	39.02	12.55	60.6	-15.869999999999997	1.04	156.06	1	130.05	39.02	0.0	0.0	0.0	0.0	0.0	0.0	0.0	0.0	0.0	0.0	0.0	0.0	0.0	0.0	0.0
	123	39.02	25.989999999999995	60.6	-15.869999999999997	1.04	156.06	1	130.05	39.02	0.0	0.0	0.0	0.0	0.0	0.0	0.0	0.0	0.0	0.0	0.0	0.0	0.0	0.0	0.0
	133	133.92	21.46	208.02	-54.459999999999994	1.04	535.68	1	446.4	133.92	0.0	0.0	0.0	0.0	0.0	0.0	0.0	0.0	0.0	0.0	0.0	0.0	0.0	0.0	0.0
	133	133.92	25.06	208.02	-54.459999999999994	1.04	535.68	1	446.4	133.92	0.0	0.0	0.0	0.0	0.0	0.0	0.0	0.0	0.0	0.0	0.0	0.0	0.0	0.0	0.0
	146	92.4	8.79	21.41	-14.469999999999999	1.04	120.6	1	92.4	92.4	0.0	0.0	0.0	0.0	0.0	0.0	0.0	0.0	0.0	0.0	0.0	0.0	0.0	0.0	0.0
	149	1.6200000000000003	0.02	2.52	-0.66	1.04	6.48	1	5.4	1.6200000000000003	0.0	0.0	0.0	0.0	0.0	0.0	0.0	0.0	0.0	0.0	0.0	0.0	0.0	0.0	0.0
	149	23.17	0.27	35.99	-9.42	1.04	92.67	1	77.22	23.17	0.0	0.0	0.0	0.0	0.0	0.0	0.0	0.0	0.0	0.0	0.0	0.0	0.0	0.0	0.0
	149	23.17	0.02	35.99	-9.42	1.04	92.67	1	77.22	23.17	0.0	0.0	0.0	0.0	0.0	0.0	0.0	0.0	0.0	0.0	0.0	0.0	0.0	0.0	0.0
	149	23.17	0.14	35.99	-9.42	1.04	92.67	1	77.22	23.17	0.0	0.0	0.0	0.0	0.0	0.0	0.0	0.0	0.0	0.0	0.0	0.0	0.0	0.0	0.0
	149	23.17	0.13	35.99	-9.42	1.04	92.67	1	77.22	23.17	0.0	0.0	0.0	0.0	0.0	0.0	0.0	0.0	0.0	0.0	0.0	0.0	0.0	0.0	0.0
	160	0.0	0.0	70.55	-15.380000000000003	1.04	166.32	0	138.6	41.58	0.0	0.0	0.0	0.0	0.0	0.0	0.0	0.0	0.0	0.0	0.0	0.0	0.0	0.0	0.0
	163	0.0	0.0	6.11	-1.33	1.04	14.4	0	12.0	3.6000000000000005	0.0	0.0	0.0	0.0	0.0	0.0	0.0	0.0	0.0	0.0	0.0	0.0	0.0	0.0	0.0
	163	0.0	0.0	13.23	-2.89	1.04	31.2	0	26.0	7.8	0.0	0.0	0.0	0.0	0.0	0.0	0.0	0.0	0.0	0.0	0.0	0.0	0.0	0.0	0.0
	163	0.0	0.0	4.78	-1.04	1.04	11.28	0	9.4	2.82	0.0	0.0	0.0	0.0	0.0	0.0	0.0	0.0	0.0	0.0	0.0	0.0	0.0	0.0	0.0
	163	2.82	-1.04	4.78	-1.04	1.04	11.28	1	9.4	2.82	0.0	0.0	0.0	0.0	0.0	0.0	0.0	0.0	0.0	0.0	0.0	0.0	0.0	0.0	0.0
	163	0.0	0.0	4.78	-1.04	1.04	11.28	0	9.4	2.82	0.0	0.0	0.0	0.0	0.0	0.0	0.0	0.0	0.0	0.0	0.0	0.0	0.0	0.0	0.0
	163	0.0	0.0	4.78	-1.04	1.04	11.28	0	9.4	2.82	0.0	0.0	0.0	0.0	0.0	0.0	0.0	0.0	0.0	0.0	0.0	0.0	0.0	0.0	0.0
	163	2.82	-0.9899999999999999	4.78	-1.04	1.04	11.28	1	9.4	2.82	0.0	0.0	0.0	0.0	0.0	0.0	0.0	0.0	0.0	0.0	0.0	0.0	0.0	0.0	0.0
	181	5.25	2.15	8.16	-2.14	1.04	21.0	1	17.5	5.25	0.0	0.0	0.0	0.0	0.0	0.0	0.0	0.0	0.0	0.0	0.0	0.0	0.0	0.0	0.0
	181	7.980000000000001	5.73	12.4	-3.25	1.04	31.92	1	26.6	7.980000000000001	0.0	0.0	0.0	0.0	0.0	0.0	0.0	0.0	0.0	0.0	0.0	0.0	0.0	0.0	0.0
	189	384.37	-24.15	209.45	-46.67	1.04	682.98	1	569.15	170.75	0.0	0.0	0.0	0.0	0.0	0.0	0.0	0.0	0.0	0.0	0.0	0.0	0.0	0.0	0.0
	195	0.0	0.0	34.36	-7.490000000000001	1.04	81.0	0	67.5	20.25	0.0	0.0	0.0	0.0	0.0	0.0	0.0	0.0	0.0	0.0	0.0	0.0	0.0	0.0	0.0
	195	0.0	0.0	34.36	-7.490000000000001	1.04	81.0	0	67.5	20.25	0.0	0.0	0.0	0.0	0.0	0.0	0.0	0.0	0.0	0.0	0.0	0.0	0.0	0.0	0.0
];

%% branch data
%    f_bus    t_bus    r    x    b    rateA    rateB    rateC    ratio    angle    status    angmin    angmax
mpc.branch = [
	1	119	0.018542	0.119758	0.02285	221.1	0.0	0.0	0	0	1	-60.0001403060998	60.0001403060998	12.25	-0.57	-12.22	-1.63	0.0	0.0	0.0	0.0
	124	1	0.005615	0.036268	0.00692	221.1	0.0	0.0	0	0	1	-60.0001403060998	60.0001403060998	40.13	7.9399999999999995	-40.04	-8.08	0.0	0.0	0.0	0.0
	193	1	0.004258	0.027501	0.00525	221.1	0.0	0.0	0	0	1	-60.0001403060998	60.0001403060998	-20.39	-6.959999999999999	20.41	6.54	0.0	0.0	0.0	0.0
	57	3	0.008505	0.058098	0.00988	221.1	0.0	0.0	0	0	1	-60.0001403060998	60.0001403060998	-13.56	-1.8900000000000001	13.58	0.9399999999999998	0.0	0.0	0.0	0.0
	3	137	0.005889	0.038035	0.00726	221.1	0.0	0.0	0	0	1	-60.0001403060998	60.0001403060998	-15.27	-1.42	15.289999999999997	0.74	0.0	0.0	0.0	0.0
	48	5	0.006246	0.043513	0.00711	221.1	0.0	0.0	0	0	1	-60.0001403060998	60.0001403060998	-27.22	-1.38	27.27	0.9199999999999999	0.0	0.0	0.0	0.0
	5	64	0.007877	0.054875	0.00897	221.1	0.0	0.0	0	0	1	-60.0001403060998	60.0001403060998	-35.21	-3.19	35.3	2.86	0.0	0.0	0.0	0.0
	7	86	0.003756	0.024259	0.00463	221.1	0.0	0.0	0	0	1	-60.0001403060998	60.0001403060998	-12.29	-3.29	12.29	2.86	0.0	0.0	0.0	0.0
	7	101	0.003597	0.023232	0.00443	221.1	0.0	0.0	0	0	1	-60.0001403060998	60.0001403060998	-24.59	-6.14	24.61	5.83	0.0	0.0	0.0	0.0
	7	148	0.008667	0.05598	0.01068	221.1	0.0	0.0	0	0	1	-60.0001403060998	60.0001403060998	13.140000000000002	2.65	-13.119999999999997	-3.65	0.0	0.0	0.0	0.0
	9	124	0.008069	0.055123	0.00938	221.1	0.0	0.0	0	0	1	-60.0001403060998	60.0001403060998	-39.58	-9.83	39.7	9.74	0.0	0.0	0.0	0.0
	131	9	0.004139	0.026732	0.0051	221.1	0.0	0.0	0	0	1	-60.0001403060998	60.0001403060998	-0.68	0.52	0.68	-1.04	0.0	0.0	0.0	0.0
	9	141	0.004446	0.03097	0.00506	221.1	0.0	0.0	0	0	1	-60.0001403060998	60.0001403060998	3.05	0.67	-3.05	-1.18	0.0	0.0	0.0	0.0
	9	193	0.003695	0.025244	0.00429	221.1	0.0	0.0	0	0	1	-60.0001403060998	60.0001403060998	-6.849999999999999	-2.03	6.849999999999999	1.6	0.0	0.0	0.0	0.0
	11	15	0.010408	0.06722	0.01282	221.1	0.0	0.0	0	0	1	-60.0001403060998	60.0001403060998	-14.52	-2.54	14.540000000000001	1.26	0.0	0.0	0.0	0.0
	11	93	0.018394	0.128141	0.02095	221.1	0.0	0.0	0	0	1	-60.0001403060998	60.0001403060998	1.44	-1.6200000000000003	-1.44	-0.68	0.0	0.0	0.0	0.0
	158	11	0.008519	0.058199	0.0099	221.1	0.0	0.0	0	0	1	-60.0001403060998	60.0001403060998	-10.24	-4.37	10.24	3.35	0.0	0.0	0.0	0.0
	15	14	0.000637	0.027526	0.0	300.0	0.0	0.0	1.0	0.0	1	-60.0001403060998	60.0001403060998	-59.31000000000001	18.94	59.32999999999999	-17.97	0.0	0.0	0.0	0.0
	14	121	0.007013	0.050098	0.09134	402.36	0.0	0.0	0	0	1	-60.0001403060998	60.0001403060998	-135.7	25.28	136.94	-26.35	0.0	0.0	0.0	0.0
	14	149	0.009133	0.065244	0.11895	402.36	0.0	0.0	0	0	1	-60.0001403060998	60.0001403060998	76.37	-7.32	-75.88	-2.11	0.0	0.0	0.0	0.0
	109	17	0.009789	0.068198	0.01115	221.1	0.0	0.0	0	0	1	-60.0001403060998	60.0001403060998	31.739999999999995	-1.96	-31.65	1.44	0.0	0.0	0.0	0.0
	17	120	0.010316	0.070473	0.01199	221.1	0.0	0.0	0	0	1	-60.0001403060998	60.0001403060998	24.42	-3.5000000000000004	-24.36	2.65	0.0	0.0	0.0	0.0
	22	27	0.011379	0.073494	0.01402	221.1	0.0	0.0	0	0	1	-60.0001403060998	60.0001403060998	-1.41	-2.07	1.41	0.54	0.0	0.0	0.0	0.0
	158	22	0.012701	0.086769	0.01476	221.1	0.0	0.0	0	0	1	-60.0001403060998	60.0001403060998	2.4	-2.59	-2.4	0.9899999999999999	0.0	0.0	0.0	0.0
	25	64	0.007643	0.053244	0.0087	221.1	0.0	0.0	0	0	1	-60.0001403060998	60.0001403060998	-50.92	9.41	51.11	-9.04	0.0	0.0	0.0	0.0
	199	25	0.009909	0.064003	0.01221	221.1	0.0	0.0	0	0	1	-60.0001403060998	60.0001403060998	-49.33	9.96	49.57	-9.8	0.0	0.0	0.0	0.0
	27	93	0.025172	0.175362	0.02867	221.1	0.0	0.0	0	0	1	-60.0001403060998	60.0001403060998	-2.96	-1.7500000000000002	2.96	-1.37	0.0	0.0	0.0	0.0
	27	158	0.020429	0.131945	0.02517	221.1	0.0	0.0	0	0	1	-60.0001403060998	60.0001403060998	-0.78	0.54	0.78	-3.29	0.0	0.0	0.0	0.0
	30	29	0.000694	0.003131	0.0	100.0	0.0	0.0	0	0	1	-60.0001403060998	60.0001403060998	-59.089999999999996	-16.84	59.11	16.95	0.0	0.0	0.0	0.0
	124	29	0.005561	0.038742	0.00633	221.1	0.0	0.0	0	0	1	-60.0001403060998	60.0001403060998	36.44	10.61	-36.36	-10.73	0.0	0.0	0.0	0.0
	29	140	0.007895	0.055004	0.00899	221.1	0.0	0.0	0	0	1	-60.0001403060998	60.0001403060998	-22.75	-6.22	22.79	5.58	0.0	0.0	0.0	0.0
	177	31	0.008406	0.05856	0.00957	221.1	0.0	0.0	0	0	1	-60.0001403060998	60.0001403060998	13.43	8.78	-13.41	-9.64	0.0	0.0	0.0	0.0
	192	31	0.008088	0.05525	0.0094	221.1	0.0	0.0	0	0	1	-60.0001403060998	60.0001403060998	-6.45	-8.58	6.460000000000001	7.66	0.0	0.0	0.0	0.0
	34	54	0.006268	0.042819	0.00729	221.1	0.0	0.0	0	0	1	-60.0001403060998	60.0001403060998	-37.23	-6.21	37.31	6.0	0.0	0.0	0.0	0.0
	34	137	0.006911	0.044639	0.00852	221.1	0.0	0.0	0	0	1	-60.0001403060998	60.0001403060998	16.46	0.27	-16.45	-1.07	0.0	0.0	0.0	0.0
	58	36	0.010889	0.07439	0.01266	221.1	0.0	0.0	0	0	1	-60.0001403060998	60.0001403060998	4.99	8.16	-4.98	-9.43	0.0	0.0	0.0	0.0
	83	36	0.009615	0.066986	0.01095	221.1	0.0	0.0	0	0	1	-60.0001403060998	60.0001403060998	28.470000000000002	-0.53	-28.4	-0.11	0.0	0.0	0.0	0.0
	39	85	0.008702	0.060625	0.00991	221.1	0.0	0.0	0	0	1	-60.0001403060998	60.0001403060998	-17.67	2.93	17.69	-3.7800000000000002	0.0	0.0	0.0	0.0
	159	39	0.007332	0.05108	0.00835	221.1	0.0	0.0	0	0	1	-60.0001403060998	60.0001403060998	-8.21	4.79	8.22	-5.62	0.0	0.0	0.0	0.0
	41	100	0.004595	0.029676	0.00566	221.1	0.0	0.0	0	0	1	-60.0001403060998	60.0001403060998	-12.26	-31.230000000000004	12.3	30.9	0.0	0.0	0.0	0.0
	41	163	0.003165	0.021623	0.00368	221.1	0.0	0.0	0	0	1	-60.0001403060998	60.0001403060998	-0.77	14.99	0.77	-15.340000000000002	0.0	0.0	0.0	0.0
	41	180	0.009408	0.060766	0.01159	221.1	0.0	0.0	0	0	1	-60.0001403060998	60.0001403060998	-25.31	5.32	25.370000000000005	-6.21	0.0	0.0	0.0	0.0
	44	42	0.012256	0.085383	0.01396	221.1	0.0	0.0	0	0	1	-60.0001403060998	60.0001403060998	13.889999999999999	-5.21	-13.86	3.91	0.0	0.0	0.0	0.0
	181	42	0.008008	0.05579	0.00912	221.1	0.0	0.0	0	0	1	-60.0001403060998	60.0001403060998	-3.2400000000000007	5.99	3.25	-6.93	0.0	0.0	0.0	0.0
	43	84	0.007509	0.051295	0.00873	221.1	0.0	0.0	0	0	1	-60.0001403060998	60.0001403060998	-20.04	-1.46	20.07	0.75	0.0	0.0	0.0	0.0
	43	132	0.011052	0.075503	0.01285	221.1	0.0	0.0	0	0	1	-60.0001403060998	60.0001403060998	17.95	0.86	-17.92	-1.95	0.0	0.0	0.0	0.0
	44	200	0.014813	0.101195	0.01722	221.1	0.0	0.0	0	0	1	-60.0001403060998	60.0001403060998	-18.03	4.03	18.08	-5.51	0.0	0.0	0.0	0.0
	46	45	0.000936	0.049195	0.0	160.0	0.0	0.0	1.0	0.0	1	-60.0001403060998	60.0001403060998	-31.39	-0.49	31.4	0.95	0.0	0.0	0.0	0.0
	55	45	0.002593	0.018527	0.03378	402.36	0.0	0.0	0	0	1	-60.0001403060998	60.0001403060998	-23.94	-6.06	23.95	2.52	0.0	0.0	0.0	0.0
	102	45	0.0029	0.020715	0.03777	402.36	0.0	0.0	0	0	1	-60.0001403060998	60.0001403060998	18.42	-8.82	-18.41	4.83	0.0	0.0	0.0	0.0
	45	189	0.003474	0.024821	0.04525	402.36	0.0	0.0	0	0	1	-60.0001403060998	60.0001403060998	-36.94	-8.3	36.99	3.73	0.0	0.0	0.0	0.0
	61	46	0.006971	0.048561	0.00794	221.1	0.0	0.0	0	0	1	-60.0001403060998	60.0001403060998	-8.86	-4.81	8.87	4.0	0.0	0.0	0.0	0.0
	122	46	0.010129	0.065419	0.01248	221.1	0.0	0.0	0	0	1	-60.0001403060998	60.0001403060998	-16.15	4.14	16.18	-5.31	0.0	0.0	0.0	0.0
	47	54	0.006678	0.045623	0.00776	221.1	0.0	0.0	0	0	1	-60.0001403060998	60.0001403060998	12.619999999999997	1.78	-12.61	-2.54	0.0	0.0	0.0	0.0
	47	66	0.007339	0.047401	0.00904	221.1	0.0	0.0	0	0	1	-60.0001403060998	60.0001403060998	-14.17	-2.22	14.180000000000001	1.33	0.0	0.0	0.0	0.0
	48	74	0.007959	0.054369	0.00925	221.1	0.0	0.0	0	0	1	-60.0001403060998	60.0001403060998	33.56	5.65	-33.47	-6.05	0.0	0.0	0.0	0.0
	54	66	0.007051	0.045544	0.00869	221.1	0.0	0.0	0	0	1	-60.0001403060998	60.0001403060998	-27.36	-4.21	27.41	3.6000000000000005	0.0	0.0	0.0	0.0
	56	55	0.005152	0.124653	0.0	160.0	0.0	0.0	1.0	0.0	1	-60.0001403060998	60.0001403060998	-6.6000000000000005	-0.22999999999999998	6.6000000000000005	0.28	0.0	0.0	0.0	0.0
	81	55	0.005467	0.039054	0.0712	402.36	0.0	0.0	0	0	1	-60.0001403060998	60.0001403060998	-74.84	10.58	75.14	-16.14	0.0	0.0	0.0	0.0
	55	102	0.001246	0.008902	0.01623	402.36	0.0	0.0	0	0	1	-60.0001403060998	60.0001403060998	-92.52	6.419999999999999	92.62	-7.449999999999999	0.0	0.0	0.0	0.0
	55	112	0.004166	0.029763	0.05426	402.36	0.0	0.0	0	0	1	-60.0001403060998	60.0001403060998	6.909999999999999	7.22	-6.9	-12.990000000000002	0.0	0.0	0.0	0.0
	55	128	0.003415	0.024395	0.04448	402.36	0.0	0.0	0	0	1	-60.0001403060998	60.0001403060998	27.810000000000002	8.29	-27.779999999999998	-12.85	0.0	0.0	0.0	0.0
	56	103	0.004282	0.02983	0.00488	221.1	0.0	0.0	0	0	1	-60.0001403060998	60.0001403060998	5.29	-0.15	-5.29	-0.37	0.0	0.0	0.0	0.0
	57	159	0.00752	0.051369	0.00874	221.1	0.0	0.0	0	0	1	-60.0001403060998	60.0001403060998	10.74	1.08	-10.74	-1.95	0.0	0.0	0.0	0.0
	95	58	0.009836	0.063526	0.01212	221.1	0.0	0.0	0	0	1	-60.0001403060998	60.0001403060998	-0.73	16.45	0.75	-17.59	0.0	0.0	0.0	0.0
	177	58	0.014049	0.095972	0.01633	221.1	0.0	0.0	0	0	1	-60.0001403060998	60.0001403060998	10.0	-9.8	-9.98	8.23	0.0	0.0	0.0	0.0
	59	119	0.011209	0.072397	0.01381	221.1	0.0	0.0	0	0	1	-60.0001403060998	60.0001403060998	5.34	1.97	-5.33	-3.38	0.0	0.0	0.0	0.0
	59	139	0.009665	0.062426	0.01191	221.1	0.0	0.0	0	0	1	-60.0001403060998	60.0001403060998	-10.07	-3.32	10.08	2.15	0.0	0.0	0.0	0.0
	60	97	0.012274	0.079279	0.01512	221.1	0.0	0.0	0	0	1	-60.0001403060998	60.0001403060998	34.99	-2.53	-34.85	1.8500000000000003	0.0	0.0	0.0	0.0
	134	60	0.009007	0.062749	0.01026	221.1	0.0	0.0	0	0	1	-60.0001403060998	60.0001403060998	38.92	-1.6399999999999997	-38.79	1.45	0.0	0.0	0.0	0.0
	61	103	0.006539	0.045556	0.00745	221.1	0.0	0.0	0	0	1	-60.0001403060998	60.0001403060998	-11.69	-1.05	11.7	0.31	0.0	0.0	0.0	0.0
	159	62	0.008634	0.058979	0.01003	221.1	0.0	0.0	0	0	1	-60.0001403060998	60.0001403060998	17.56	-3.2300000000000004	-17.53	2.35	0.0	0.0	0.0	0.0
	160	62	0.007628	0.053144	0.00869	221.1	0.0	0.0	0	0	1	-60.0001403060998	60.0001403060998	3.88	7.57	-3.8699999999999997	-8.45	0.0	0.0	0.0	0.0
	63	66	0.011949	0.083244	0.01361	221.1	0.0	0.0	0	0	1	-60.0001403060998	60.0001403060998	-8.15	3.85	8.16	-5.26	0.0	0.0	0.0	0.0
	63	184	0.017963	0.116023	0.02214	221.1	0.0	0.0	0	0	1	-60.0001403060998	60.0001403060998	0.17	-6.13	-0.16	3.73	0.0	0.0	0.0	0.0
	66	158	0.004993	0.032251	0.00615	221.1	0.0	0.0	0	0	1	-60.0001403060998	60.0001403060998	1.92	-8.34	-1.92	7.690000000000001	0.0	0.0	0.0	0.0
	74	190	0.008894	0.06076	0.01034	221.1	0.0	0.0	0	0	1	-60.0001403060998	60.0001403060998	14.71	0.7	-14.69	-1.67	0.0	0.0	0.0	0.0
	108	75	0.010988	0.070969	0.01354	221.1	0.0	0.0	0	0	1	-60.0001403060998	60.0001403060998	-12.61	-2.57	12.629999999999999	1.25	0.0	0.0	0.0	0.0
	75	157	0.013487	0.087112	0.01662	221.1	0.0	0.0	0	0	1	-60.0001403060998	60.0001403060998	-14.31	-0.4	14.34	-1.19	0.0	0.0	0.0	0.0
	80	100	0.021463	0.149525	0.02444	221.1	0.0	0.0	0	0	1	-60.0001403060998	60.0001403060998	6.64	-7.88	-6.619999999999999	5.29	0.0	0.0	0.0	0.0
	80	143	0.020594	0.14347	0.02345	221.1	0.0	0.0	0	0	1	-60.0001403060998	60.0001403060998	-8.11	7.46	8.14	-9.82	0.0	0.0	0.0	0.0
	82	81	0.00097	0.042371	0.0	250.0	0.0	0.0	1.0	0.0	1	-60.0001403060998	60.0001403060998	-36.8	-5.84	36.81	6.38	0.0	0.0	0.0	0.0
	81	178	0.006598	0.047137	0.08594	402.36	0.0	0.0	0	0	1	-60.0001403060998	60.0001403060998	38.03	-16.97	-37.93	8.37	0.0	0.0	0.0	0.0
	82	195	0.003845	0.026265	0.00447	221.1	0.0	0.0	0	0	1	-60.0001403060998	60.0001403060998	29.2	3.6699999999999995	-29.17	-3.93	0.0	0.0	0.0	0.0
	83	146	0.005382	0.036767	0.00626	221.1	0.0	0.0	0	0	1	-60.0001403060998	60.0001403060998	-57.18	1.52	57.35	-1.06	0.0	0.0	0.0	0.0
	83	186	0.00792	0.055174	0.00902	221.1	0.0	0.0	0	0	1	-60.0001403060998	60.0001403060998	25.569999999999997	-1.8799999999999997	-25.52	1.27	0.0	0.0	0.0	0.0
	84	113	0.006652	0.04544	0.00773	221.1	0.0	0.0	0	0	1	-60.0001403060998	60.0001403060998	-23.82	-1.82	23.86	1.27	0.0	0.0	0.0	0.0
	85	120	0.007786	0.050291	0.00959	221.1	0.0	0.0	0	0	1	-60.0001403060998	60.0001403060998	-22.53	2.4	22.57	-3.16	0.0	0.0	0.0	0.0
	86	101	0.00512	0.033072	0.00631	221.1	0.0	0.0	0	0	1	-60.0001403060998	60.0001403060998	-8.26	-2.26	8.27	1.6399999999999997	0.0	0.0	0.0	0.0
	86	193	0.006606	0.042664	0.00814	221.1	0.0	0.0	0	0	1	-60.0001403060998	60.0001403060998	-11.23	-3.85	11.24	3.07	0.0	0.0	0.0	0.0
	88	87	0.000832	0.034189	0.0	350.0	0.0	0.0	1.0	0.0	1	-60.0001403060998	60.0001403060998	-65.67	-2.16	65.71	3.53	0.0	0.0	0.0	0.0
	149	87	0.001621	0.011579	0.02111	402.36	0.0	0.0	0	0	1	-60.0001403060998	60.0001403060998	65.77	1.72	-65.71	-3.53	0.0	0.0	0.0	0.0
	88	150	0.00557	0.035973	0.00686	221.1	0.0	0.0	0	0	1	-60.0001403060998	60.0001403060998	-25.53	-4.64	25.569999999999997	4.13	0.0	0.0	0.0	0.0
	176	88	0.003859	0.024922	0.00475	221.1	0.0	0.0	0	0	1	-60.0001403060998	60.0001403060998	-29.080000000000002	-6.93	29.109999999999996	6.63	0.0	0.0	0.0	0.0
	88	194	0.004258	0.029088	0.00495	221.1	0.0	0.0	0	0	1	-60.0001403060998	60.0001403060998	12.76	-13.900000000000002	-12.740000000000002	13.459999999999999	0.0	0.0	0.0	0.0
	89	95	0.008734	0.056409	0.01076	221.1	0.0	0.0	0	0	1	-60.0001403060998	60.0001403060998	2.29	-16.5	-2.27	15.47	0.0	0.0	0.0	0.0
	188	89	0.00805	0.051996	0.00992	221.1	0.0	0.0	0	0	1	-60.0001403060998	60.0001403060998	62.970000000000006	1.54	-62.68	-0.71	0.0	0.0	0.0	0.0
	93	191	0.022088	0.142662	0.02722	221.1	0.0	0.0	0	0	1	-60.0001403060998	60.0001403060998	0.8199999999999998	-1.11	-0.8199999999999998	-1.87	0.0	0.0	0.0	0.0
	122	96	0.01062	0.073986	0.01209	221.1	0.0	0.0	0	0	1	-60.0001403060998	60.0001403060998	28.51	-5.54	-28.42	4.8	0.0	0.0	0.0	0.0
	96	143	0.015858	0.102423	0.01954	221.1	0.0	0.0	0	0	1	-60.0001403060998	60.0001403060998	35.1	-3.1300000000000003	-34.92	2.19	0.0	0.0	0.0	0.0
	96	188	0.010903	0.070421	0.01343	221.1	0.0	0.0	0	0	1	-60.0001403060998	60.0001403060998	-9.63	-2.52	9.64	1.13	0.0	0.0	0.0	0.0
	97	200	0.01318	0.085125	0.01624	221.1	0.0	0.0	0	0	1	-60.0001403060998	60.0001403060998	27.52	-3.94	-27.43	2.85	0.0	0.0	0.0	0.0
	99	98	0.000643	0.030516	0.0	250.0	0.0	0.0	1.0	0.0	1	-60.0001403060998	60.0001403060998	-50.59	-12.68	50.61	13.47	0.0	0.0	0.0	0.0
	98	123	0.0047	0.033574	0.06121	402.36	0.0	0.0	0	0	1	-60.0001403060998	60.0001403060998	-50.61	-13.47	50.72	7.84	0.0	0.0	0.0	0.0
	99	86	0.007605	0.052982	0.00866	221.1	0.0	0.0	0	0	1	-60.0001403060998	60.0001403060998	38.42	9.21	-38.31	-9.31	0.0	0.0	0.0	0.0
	100	174	0.010698	0.074531	0.01218	221.1	0.0	0.0	0	0	1	-60.0001403060998	60.0001403060998	-20.65	12.42	20.71	-13.37	0.0	0.0	0.0	0.0
	100	179	0.007093	0.049413	0.00808	221.1	0.0	0.0	0	0	1	-60.0001403060998	60.0001403060998	-32.96	24.58	33.07	-24.71	0.0	0.0	0.0	0.0
	100	184	0.012745	0.08879	0.01451	221.1	0.0	0.0	0	0	1	-60.0001403060998	60.0001403060998	10.55	5.29	-10.53	-6.78	0.0	0.0	0.0	0.0
	110	101	0.00196	0.012657	0.00241	221.1	0.0	0.0	0	0	1	-60.0001403060998	60.0001403060998	-1.01	0.5	1.01	-0.75	0.0	0.0	0.0	0.0
	101	117	0.005245	0.035833	0.0061	221.1	0.0	0.0	0	0	1	-60.0001403060998	60.0001403060998	-37.43	-6.12	37.5	5.99	0.0	0.0	0.0	0.0
	101	141	0.003144	0.020305	0.00387	221.1	0.0	0.0	0	0	1	-60.0001403060998	60.0001403060998	3.02	-0.75	-3.02	0.35	0.0	0.0	0.0	0.0
	103	102	0.001709	0.054578	0.0	250.0	0.0	0.0	1.0	0.0	1	-60.0001403060998	60.0001403060998	-33.22	-1.33	33.24	1.9	0.0	0.0	0.0	0.0
	102	128	0.0027	0.019292	0.03517	402.36	0.0	0.0	0	0	1	-60.0001403060998	60.0001403060998	77.82	8.85	-77.66	-11.52	0.0	0.0	0.0	0.0
	103	106	0.007749	0.053987	0.00883	221.1	0.0	0.0	0	0	1	-60.0001403060998	60.0001403060998	26.82	1.39	-26.76	-1.97	0.0	0.0	0.0	0.0
	130	106	0.006991	0.047761	0.00813	221.1	0.0	0.0	0	0	1	-60.0001403060998	60.0001403060998	-24.67	-1.9799999999999998	24.71	1.39	0.0	0.0	0.0	0.0
	107	113	0.006748	0.046101	0.00784	221.1	0.0	0.0	0	0	1	-60.0001403060998	60.0001403060998	-26.649999999999995	-7.5	26.700000000000003	7.03	0.0	0.0	0.0	0.0
	107	129	0.005168	0.035307	0.00601	221.1	0.0	0.0	0	0	1	-60.0001403060998	60.0001403060998	-32.36	-5.43	32.41	5.17	0.0	0.0	0.0	0.0
	192	107	0.003939	0.025441	0.00485	221.1	0.0	0.0	0	0	1	-60.0001403060998	60.0001403060998	-6.45	1.56	6.45	-2.05	0.0	0.0	0.0	0.0
	108	198	0.024792	0.160126	0.03055	221.1	0.0	0.0	0	0	1	-60.0001403060998	60.0001403060998	3.19	-0.12	-3.19	-3.07	0.0	0.0	0.0	0.0
	186	109	0.008774	0.059942	0.0102	221.1	0.0	0.0	0	0	1	-60.0001403060998	60.0001403060998	37.01	-0.79	-36.9	0.49	0.0	0.0	0.0	0.0
	110	193	0.003444	0.022243	0.00424	221.1	0.0	0.0	0	0	1	-60.0001403060998	60.0001403060998	-9.84	-3.5900000000000003	9.85	3.18	0.0	0.0	0.0	0.0
	163	111	0.005281	0.034111	0.00651	221.1	0.0	0.0	0	0	1	-60.0001403060998	60.0001403060998	8.16	1.04	-8.16	-1.72	0.0	0.0	0.0	0.0
	111	175	0.00795	0.055386	0.00905	221.1	0.0	0.0	0	0	1	-60.0001403060998	60.0001403060998	-0.66	-0.79	0.66	-0.19	0.0	0.0	0.0	0.0
	113	112	0.002077	0.058615	0.0	350.0	0.0	0.0	1.0	0.0	1	-60.0001403060998	60.0001403060998	-90.48	-16.17	90.65	20.92	0.0	0.0	0.0	0.0
	128	112	0.001295	0.009255	0.01687	402.36	0.0	0.0	0	0	1	-60.0001403060998	60.0001403060998	-50.9	3.83	50.94	-5.41	0.0	0.0	0.0	0.0
	113	192	0.005418	0.034995	0.00668	221.1	0.0	0.0	0	0	1	-60.0001403060998	60.0001403060998	39.93	7.88	-39.84	-8.02	0.0	0.0	0.0	0.0
	117	116	0.000517	0.034943	0.0	300.0	0.0	0.0	1.0	0.0	1	-60.0001403060998	60.0001403060998	-70.98	-17.52	71.01	19.32	0.0	0.0	0.0	0.0
	133	116	0.00389	0.027793	0.05067	402.36	0.0	0.0	0	0	1	-60.0001403060998	60.0001403060998	71.2	15.35	-71.01	-19.32	0.0	0.0	0.0	0.0
	117	132	0.011912	0.082984	0.01357	221.1	0.0	0.0	0	0	1	-60.0001403060998	60.0001403060998	9.05	4.42	-9.04	-5.73	0.0	0.0	0.0	0.0
	117	162	0.01617	0.104442	0.01993	221.1	0.0	0.0	0	0	1	-60.0001403060998	60.0001403060998	-9.65	-2.59	9.67	0.61	0.0	0.0	0.0	0.0
	131	118	0.00718	0.046377	0.00885	221.1	0.0	0.0	0	0	1	-60.0001403060998	60.0001403060998	-29.57	-9.14	29.64	8.65	0.0	0.0	0.0	0.0
	118	134	0.011598	0.0808	0.01321	221.1	0.0	0.0	0	0	1	-60.0001403060998	60.0001403060998	-35.76	-7.08	35.91	6.709999999999999	0.0	0.0	0.0	0.0
	118	198	0.009487	0.064809	0.01103	221.1	0.0	0.0	0	0	1	-60.0001403060998	60.0001403060998	2.18	-2.69	-2.18	1.54	0.0	0.0	0.0	0.0
	122	121	0.000786	0.063023	0.0	200.0	0.0	0.0	1.0	0.0	1	-60.0001403060998	60.0001403060998	-27.79	-3.0	27.800000000000004	3.45	0.0	0.0	0.0	0.0
	121	178	0.008903	0.063604	0.11596	402.36	0.0	0.0	0	0	1	-60.0001403060998	60.0001403060998	68.42	-14.64	-68.03	4.85	0.0	0.0	0.0	0.0
	189	121	0.001063	0.007593	0.01384	150.0	0.0	0.0	0	0	1	-60.0001403060998	60.0001403060998	233.7	-35.12	-233.15	37.53	0.0	0.0	0.0	0.0
	124	123	0.000329	0.017481	0.0	400.0	0.0	0.0	1.0	0.0	1	-60.0001403060998	60.0001403060998	-160.25	-39.24	160.34	43.78	0.0	0.0	0.0	0.0
	123	133	0.001459	0.010423	0.019	402.36	0.0	0.0	0	0	1	-60.0001403060998	60.0001403060998	-76.38	-6.45	76.46	4.99	0.0	0.0	0.0	0.0
	156	123	0.001117	0.007981	0.01455	402.36	0.0	0.0	0	0	1	-60.0001403060998	60.0001403060998	17.73	1.06	-17.72	-2.58	0.0	0.0	0.0	0.0
	124	193	0.006577	0.04582	0.00749	221.1	0.0	0.0	0	0	1	-60.0001403060998	60.0001403060998	43.97	10.96	-43.84	-10.84	0.0	0.0	0.0	0.0
	129	128	0.000753	0.044453	0.0	250.0	0.0	0.0	1.0	0.0	1	-60.0001403060998	60.0001403060998	-109.66	-27.190000000000005	109.74999999999999	32.64	0.0	0.0	0.0	0.0
	128	133	0.009554	0.068257	0.12444	402.36	0.0	0.0	0	0	1	-60.0001403060998	60.0001403060998	46.6	-12.1	-46.4	0.21	0.0	0.0	0.0	0.0
	130	144	0.022678	0.157988	0.02583	221.1	0.0	0.0	0	0	1	-60.0001403060998	60.0001403060998	20.27	0.72	-20.18	-2.83	0.0	0.0	0.0	0.0
	134	133	0.0002	0.013328	0.0	400.0	0.0	0.0	1.0	0.0	1	-60.0001403060998	60.0001403060998	-119.54	-11.73	119.56	13.54	0.0	0.0	0.0	0.0
	156	133	0.001958	0.013985	0.0255	402.36	0.0	0.0	0	0	1	-60.0001403060998	60.0001403060998	-46.82	-4.44	46.87	2.01	0.0	0.0	0.0	0.0
	134	140	0.010445	0.071357	0.01214	221.1	0.0	0.0	0	0	1	-60.0001403060998	60.0001403060998	31.1	7.33	-31.0	-7.919999999999999	0.0	0.0	0.0	0.0
	134	186	0.014463	0.093412	0.01782	221.1	0.0	0.0	0	0	1	-60.0001403060998	60.0001403060998	13.61	-0.66	-13.59	-1.07	0.0	0.0	0.0	0.0
	138	139	0.026477	0.184455	0.03015	221.1	0.0	0.0	0	0	1	-60.0001403060998	60.0001403060998	16.99	1.44	-16.92	-4.1	0.0	0.0	0.0	0.0
	138	195	0.008728	0.05637	0.01075	221.1	0.0	0.0	0	0	1	-60.0001403060998	60.0001403060998	-19.09	-2.03	19.12	1.08	0.0	0.0	0.0	0.0
	141	148	0.01019	0.065817	0.01256	221.1	0.0	0.0	0	0	1	-60.0001403060998	60.0001403060998	18.94	4.44	-18.9	-5.48	0.0	0.0	0.0	0.0
	141	193	0.002896	0.018702	0.00357	221.1	0.0	0.0	0	0	1	-60.0001403060998	60.0001403060998	-14.3	-4.01	14.31	3.6799999999999997	0.0	0.0	0.0	0.0
	162	144	0.006962	0.048504	0.00793	221.1	0.0	0.0	0	0	1	-60.0001403060998	60.0001403060998	-11.12	-1.03	11.12	0.25	0.0	0.0	0.0	0.0
	145	176	0.008799	0.060111	0.01023	221.1	0.0	0.0	0	0	1	-60.0001403060998	60.0001403060998	-10.06	-2.55	10.07	1.52	0.0	0.0	0.0	0.0
	185	145	0.010839	0.075509	0.01234	221.1	0.0	0.0	0	0	1	-60.0001403060998	60.0001403060998	7.490000000000001	1.18	-7.490000000000001	-2.45	0.0	0.0	0.0	0.0
	146	177	0.011064	0.07708	0.0126	221.1	0.0	0.0	0	0	1	-60.0001403060998	60.0001403060998	34.85	1.7399999999999998	-34.72	-2.2	0.0	0.0	0.0	0.0
	150	149	0.000412	0.020251	0.0	400.0	0.0	0.0	1.0	0.0	1	-60.0001403060998	60.0001403060998	-104.3	3.7000000000000006	104.34	-1.66	0.0	0.0	0.0	0.0
	185	150	0.013458	0.091934	0.01564	221.1	0.0	0.0	0	0	1	-60.0001403060998	60.0001403060998	-18.28	-4.25	18.32	2.87	0.0	0.0	0.0	0.0
	194	150	0.003138	0.021435	0.00365	221.1	0.0	0.0	0	0	1	-60.0001403060998	60.0001403060998	-60.3	11.04	60.41	-10.69	0.0	0.0	0.0	0.0
	157	156	0.000592	0.045654	0.0	300.0	0.0	0.0	1.0	0.0	1	-60.0001403060998	60.0001403060998	-29.09	-3.01	29.100000000000005	3.38	0.0	0.0	0.0	0.0
	160	181	0.004296	0.029345	0.00499	221.1	0.0	0.0	0	0	1	-60.0001403060998	60.0001403060998	-3.88	-7.57	3.88	7.06	0.0	0.0	0.0	0.0
	163	179	0.00579	0.039557	0.00673	221.1	0.0	0.0	0	0	1	-60.0001403060998	60.0001403060998	-49.1	-0.8199999999999998	49.23	0.96	0.0	0.0	0.0	0.0
	171	190	0.009866	0.0674	0.01147	221.1	0.0	0.0	0	0	1	-60.0001403060998	60.0001403060998	2.1	1.91	-2.1	-3.12	0.0	0.0	0.0	0.0
	195	171	0.011644	0.081116	0.01326	221.1	0.0	0.0	0	0	1	-60.0001403060998	60.0001403060998	10.05	2.85	-10.04	-4.17	0.0	0.0	0.0	0.0
	180	172	0.015296	0.106558	0.01742	221.1	0.0	0.0	0	0	1	-60.0001403060998	60.0001403060998	-6.7	0.57	6.709999999999999	-2.43	0.0	0.0	0.0	0.0
	199	172	0.024005	0.155042	0.02958	221.1	0.0	0.0	0	0	1	-60.0001403060998	60.0001403060998	12.12	-3.91	-12.09	0.9000000000000001	0.0	0.0	0.0	0.0
	173	174	0.015373	0.099293	0.01894	221.1	0.0	0.0	0	0	1	-60.0001403060998	60.0001403060998	-16.68	-3.26	16.72	1.44	0.0	0.0	0.0	0.0
	173	175	0.008572	0.055363	0.01056	221.1	0.0	0.0	0	0	1	-60.0001403060998	60.0001403060998	7.969999999999999	0.77	-7.969999999999999	-1.8900000000000001	0.0	0.0	0.0	0.0
	174	188	0.017952	0.12264	0.02087	221.1	0.0	0.0	0	0	1	-60.0001403060998	60.0001403060998	-40.2	11.14	40.49	-11.45	0.0	0.0	0.0	0.0
	179	178	0.000495	0.036157	0.0	250.0	0.0	0.0	1.0	0.0	1	-60.0001403060998	60.0001403060998	-105.91	17.02	105.96	-13.22	0.0	0.0	0.0	0.0
	180	191	0.026393	0.183866	0.03006	221.1	0.0	0.0	0	0	1	-60.0001403060998	60.0001403060998	6.419999999999999	-3.02	-6.41	-0.19	0.0	0.0	0.0	0.0
	180	199	0.012185	0.078698	0.01501	221.1	0.0	0.0	0	0	1	-60.0001403060998	60.0001403060998	-32.83	6.45	32.96	-7.2700000000000005	0.0	0.0	0.0	0.0
	181	194	0.004395	0.028384	0.00542	150.0	0.0	0.0	0	0	1	-60.0001403060998	60.0001403060998	-35.4	-19.04	35.47	18.88	0.0	0.0	0.0	0.0
	188	189	0.001394	0.044762	0.0	400.0	0.0	0.0	1.0	0.0	1	-60.0001403060998	60.0001403060998	-113.1	8.78	113.27000000000001	-3.4799999999999995	0.0	0.0	0.0	0.0
];

%%-----  OPF Data  -----%%
%% cost data
%    1    startup    shutdown    n    x1    y1    ...    xn    yn
%    2    startup    shutdown    n    c(n-1)    ...    c0
mpc.gencost = [
	2	0.0	0.0	3	0.002	19.0	236.12
	2	0.0	0.0	3	0.002	19.0	236.12
	2	0.0	0.0	3	0.002	19.0	236.12
	2	0.0	0.0	3	0.002	19.0	236.12
	2	0.0	0.0	3	0.002	19.0	236.24
	2	0.0	0.0	3	0.0	0.0	0.0
	2	0.0	0.0	3	0.002	19.0	236.13
	2	0.0	0.0	3	0.002	19.0	236.74
	2	0.0	0.0	3	0.002	19.0	236.74
	2	0.0	0.0	3	0.002	19.0	236.74
	2	0.0	0.0	3	0.002	19.0	236.74
	2	0.0	0.0	3	0.002	19.0	236.74
	2	0.0	0.0	3	0.002	19.0	236.74
	2	0.0	0.0	3	0.002	23.157	606.0
	2	0.0	0.0	3	0.002	23.146	603.6
	2	0.0	0.0	3	0.002	23.252	627.0
	2	0.0	0.0	3	0.002	23.252	627.0
	2	0.0	0.0	3	0.002	23.152000000000005	604.8
	2	0.0	0.0	3	0.002	23.164	607.5
	2	0.0	0.0	3	0.002	23.173	609.45
	2	0.0	0.0	3	0.002	19.0	236.48
	2	0.0	0.0	3	0.0	0.0	0.0
	2	0.0	0.0	3	0.0	0.0	0.0
	2	0.0	0.0	3	0.0	0.0	0.0
	2	0.0	0.0	3	0.0	0.0	0.0
	2	0.0	0.0	3	0.002	19.0	610.14
	2	0.0	0.0	3	0.002	19.0	610.14
	2	0.0	0.0	3	0.002	19.0	610.14
	2	0.0	0.0	3	0.002	19.0	1261.33
	2	0.0	0.0	3	0.002	19.0	1261.33
	2	0.0	0.0	3	0.0	0.0	0.0
	2	0.0	0.0	3	0.002	19.0	236.14
	2	0.0	0.0	3	0.002	19.0	253.01
	2	0.0	0.0	3	0.002	19.0	253.01
	2	0.0	0.0	3	0.002	19.0	253.01
	2	0.0	0.0	3	0.002	19.0	253.01
	2	0.0	0.0	3	0.002	24.07	807.9
	2	0.0	0.0	3	0.002	23.211	618.0
	2	0.0	0.0	3	0.002	23.306	639.0
	2	0.0	0.0	3	0.002	23.194000000000003	614.1
	2	0.0	0.0	3	0.002	23.194000000000003	614.1
	2	0.0	0.0	3	0.002	23.194000000000003	614.1
	2	0.0	0.0	3	0.002	23.194000000000003	614.1
	2	0.0	0.0	3	0.002	23.194000000000003	614.1
	2	0.0	0.0	3	0.002	19.0	236.47
	2	0.0	0.0	3	0.002	19.0	236.71
	2	0.0	0.0	3	0.0	6.71	1272.13
	2	0.0	0.0	3	0.002	23.588	701.25
	2	0.0	0.0	3	0.002	23.588	701.25
];

%% bus names
mpc.bus_name = {
	'CREVE COEUR 0'
	'ILLIOPOLIS 0'
	'PAXTON 2 0'
	'PEORIA 9 0'
	'PEORIA 8 0'
	'LOVINGTON 0'
	'DECATUR 3 0'
	'DECATUR 3 1'
	'MASON CITY 0'
	'BETHANY 0'
	'RANKIN 0'
	'WINDSOR 0'
	'PEKIN 2 0'
	'PEKIN 2 1'
	'HEYWORTH 0'
	'DECATUR 2 0'
	'LINCOLN 0'
	'SHERMAN 0'
	'URBANA 2 0'
	'SPRINGFIELD 8 0'
	'CARLOCK 0'
	'PLEASANT PLAINS 0'
	'LE ROY 0'
	'LE ROY 1'
	'DECATUR 1 0'
	'RANTOUL 2 0'
	'MACON 0'
	'ELLSWORTH 2 0'
	'ELLSWORTH 2 1'
	'MOUNT PULASKI 0'
	'WAPELLA 0'
	'ROANOKE 0'
	'GREEN VALLEY 0'
	'BLOOMINGTON 3 0'
	'SPRINGFIELD 7 0'
	'BEMENT 0'
	'PAXTON 1 0'
	'MOUNT ZION 0'
	'RANTOUL 1 0'
	'BRIMFIELD 0'
	'WELDON 0'
	'GIBSON CITY 2 0'
	'GIBSON CITY 2 1'
	'MINIER 0'
	'HUDSON 0'
	'ATHENS 0'
	'PEORIA HEIGHTS 0'
	'SPRINGFIELD 6 0'
	'SPRINGFIELD 6 1'
	'CLINTON 3 0'
	'TUSCOLA 2 0'
	'KENNEY 0'
	'MANSFIELD 0'
	'MANITO 0'
	'DUNLAP 0'
	'DUNLAP 1'
	'CHAMPAIGN 3 0'
	'PEORIA 7 0'
	'ELLSWORTH 1 0'
	'ELLSWORTH 1 1'
	'TOWANDA 0'
	'BLOOMINGTON 2 0'
	'PRINCEVILLE 0'
	'DELAVAN 0'
	'PEORIA 6 0'
	'SAVOY 0'
	'NORMAL 2 0'
	'NORMAL 2 1'
	'EAST PEORIA 0'
	'EAST PEORIA 1'
	'HANNA CITY 0'
	'METAMORA 0'
	'GREENVIEW 0'
	'CLINTON 2 0'
	'CLINTON 2 1'
	'BARTONVILLE 0'
	'BARTONVILLE 1'
	'NORMAL 1 0'
	'NORMAL 1 1'
	'LEXINGTON 0'
	'PEORIA 5 0'
	'MORTON 0'
	'PEKIN 1 0'
	'PEKIN 1 1'
	'NIANTIC 0'
	'COLFAX 0'
	'EL PASO 0'
	'TREMONT 0'
	'PEORIA 4 0'
	'CHAMPAIGN 2 0'
	'EUREKA 0'
	'CHATHAM 0'
	'HOPEDALE 2 0'
	'WASHINGTON 0'
	'SPRINGFIELD 5 0'
	'SPRINGFIELD 5 1'
	'PEORIA 2 0'
	'PEORIA 2 1'
	'MT ZION 0'
	'BUFFALO 0'
	'SPRINGFIELD 4 0'
	'CONGERVILLE 0'
	'CHAMPAIGN 1 0'
	'FISHER 0'
	'HOMER 0'
	'TUSCOLA 1 0'
	'WHITE HEATH 0'
	'TOLONO 0'
	'SPRINGFIELD 3 0'
	'MACKINAW 0'
	'URBANA 1 0'
	'URBANA 1 1'
	'SAINT JOSEPH 0'
	'SPRINGFIELD 2 0'
	'MONTICELLO 0'
	'AUBURN 0'
	'HOPEDALE 1 0'
	'CLINTON 1 1'
	'CLINTON 1 2'
	'MAHOMET 0'
	'VILLA GROVE 0'
	'BLOOMINGTON 1 0'
	'PEORIA 1 0'
	'SPRINGFIELD 1 0'
	'GIBSON CITY 1 0'
	'MAPLETON 0'
	'GIFFORD 0'
	'PETERSBURG 0'
};

%column_names% col_1 
mpc.genfuel = {
	'coal'
	'coal'
	'coal'
	'coal'
	'coal'
	'wind'
	'coal'
	'coal'
	'coal'
	'coal'
	'coal'
	'coal'
	'coal'
	'ng'
	'ng'
	'ng'
	'ng'
	'ng'
	'ng'
	'ng'
	'coal'
	'wind'
	'wind'
	'wind'
	'wind'
	'coal'
	'coal'
	'coal'
	'coal'
	'coal'
	'wind'
	'coal'
	'coal'
	'coal'
	'coal'
	'coal'
	'ng'
	'ng'
	'ng'
	'ng'
	'ng'
	'ng'
	'ng'
	'ng'
	'coal'
	'coal'
	'nuclear'
	'ng'
	'ng'
};

%column_names% col_1 
mpc.gentype = {
	'ST'
	'ST'
	'ST'
	'ST'
	'ST'
	'W2'
	'ST'
	'ST'
	'ST'
	'ST'
	'ST'
	'ST'
	'ST'
	'GT'
	'GT'
	'GT'
	'GT'
	'GT'
	'GT'
	'GT'
	'ST'
	'W2'
	'W2'
	'W2'
	'W2'
	'ST'
	'ST'
	'ST'
	'ST'
	'ST'
	'W2'
	'ST'
	'ST'
	'ST'
	'ST'
	'ST'
	'GT'
	'GT'
	'GT'
	'GT'
	'GT'
	'GT'
	'GT'
	'GT'
	'ST'
	'ST'
	'NB'
	'GT'
	'GT'
};

